 &time_control
 run_days                            = 0,
 run_hours                           = 0,
 run_minutes                         = 0,
 run_seconds                         = 0,
 start_year                          = 2017,  2017,  2017,  2017,  2017, 
 start_month                         = 08,    08,    08,    08,    08,   
 start_day                           = 21,    21,    21,    21,    21,   
 start_hour                          = 06,    06,    06,    06,    06,   
 end_year                            = 2017,  2017,  2017,  2017,  2017,
 end_month                           = 08,    08,    08,    08,    08,   
 end_day                             = 22,    22,    22,    22,    22,   
 end_hour                            = 00,    00,    00,    00,    00,   
 interval_seconds                    = 21600
 input_from_file                     = .true.,.true.,.true.,.true.,.true.,
 history_interval                    = 120,  120,   120,    120,    3,
 frames_per_outfile                  = 10,     10,    10,      10,  1000,
 restart                             = .false.,
 restart_interval                    = 5000,
 io_form_history                     = 2
 io_form_restart                     = 2
 io_form_input                       = 2
 io_form_boundary                    = 2
 /

 &domains
 time_step                           = 40,
 time_step_fract_num                 = 0,
 time_step_fract_den                 = 1,
 max_dom                             = 5,
 e_we                                = 102, 106,  106,  106, 106,
 e_sn                                = 102, 106,  106,  106, 106,
 e_vert                              = 50,  50,    50,  50,   50,
 p_top_requested                     = 5000,
 num_metgrid_levels                  = 32,
 num_metgrid_soil_levels             = 4,
 dx                                  = 9000, 1800,  360,   72,  14.4,
 dy                                  = 9000, 1800,  360,   72,  14.4,
 grid_id                             = 1,     2,     3,     4,    5,
 parent_id                           = 1,     1,     2,     3,    4,
 i_parent_start                      = 1,    41,    43,    43,   43,
 j_parent_start                      = 1,    41,    43,    43,   43,
 parent_grid_ratio                   = 1,     5,     5,     5,    5,
 parent_time_step_ratio              = 1,     5,     5,     5,    5,
 feedback                            = 1,
 smooth_option                       = 0
 sfcp_to_sfcp 			             = .true. 
/

 &physics
 mp_physics                          = 4,     4,     4,     4,      4,
 ra_lw_physics                       = 1,     1,     1,     1,      1,
 ra_sw_physics                       = 1,     1,     1,     1,      1,
 radt                                = 1,     1,     1,     1,      1,
 sf_sfclay_physics                   = 1,     1,     1,     1,      1,
 sf_surface_physics                  = 2,     2,     2,     2,      2,
 bl_pbl_physics                      = 1,     1,     1,     1,      1,
 bldt                                = 0,     0,     0,     0,      0,
 cu_physics                          = 1,     1,     1,     1,      0,
 cudt                                = 0,     0,     0,     0,      0,
 isfflx                              = 1 
 ifsnow                              = 1 
 icloud                              = 0 
 surface_input_source                = 3,
 num_soil_layers                     = 4,
 num_land_cat                        = 21,
 sf_urban_physics                    = 0,     0,     0,     0,      0,
 ra_sw_eclipse                       = 1,
 / 
 &fdda
 /

 &dynamics
 hybrid_opt                          = 2, 
 w_damping                           = 1,
 diff_opt                            = 1,      1,      1,       1,
 km_opt                              = 4,      4,      4,       4,
 diff_6th_opt                        = 0,      0,      0,       0,
 diff_6th_factor                     = 0.12,   0.12,   0.12,    0.12,
 base_temp                           = 290.
 damp_opt                            = 3,
 zdamp                               = 5000.,  5000.,  5000.,   5000.,
 dampcoef                            = 0.2,    0.2,    0.2      0.2
 khdif                               = 0,      0,      0,       0,
 kvdif                               = 0,      0,      0,       0,
 non_hydrostatic                     = .true., .true., .true.,  .true.,
 moist_adv_opt                       = 1,      1,      1,       1,     
 scalar_adv_opt                      = 1,      1,      1,       1,     
 gwd_opt                             = 1,      1,      0,       0,
 /

 &bdy_control
 spec_bdy_width                      = 5,
 specified                           = .true.
 /

 &grib2
 /

 &namelist_quilt
 nio_tasks_per_group = 0,
 nio_groups = 1,
 /
